template 3
 OpenBabel05242019053D
  
  4  3  0  0  0  0  0  0  0  0999 V2000
    0.6367   -1.1194   -0.7022 Pd  0  0  0  0  0  0  0  0  0  0  0  0
    2.5645   -1.3332    1.0442 I   0  0  0  0  0  0  0  0  0  0  0  0
   -1.5090   -0.8814   -0.0007 Cl  0  0  0  0  0  0  0  0  0  0  0  0
    1.1367   -1.1749   -3.0693 Br  0  0  0  0  0  0  0  0  0  0  0  0
  1  2  1  0  0  0  0
  1  3  1  0  0  0  0
  1  4  1  0  0  0  0
M  END
$$$$
