template 4 and 5
 OpenBabel03312011103D

  6  5  0  0  0  0  0  0  0  0999 V2000
    0.6367   -1.1134    1.1278 F   0  0  0  0  0  0  0  0  0  0  0  0
    0.6367    1.1206   -0.7022 Cl  0  0  0  0  0  0  0  0  0  0  0  0
    2.5557   -1.1092   -0.7022 Br  0  0  0  0  0  0  0  0  0  0  0  0
    0.6367   -3.2801   -0.7022 I   0  0  0  0  0  0  0  0  0  0  0  0
   -1.3888   -1.1086   -0.7022 At  0  0  0  0  0  0  0  0  0  0  0  0
    0.6367   -1.1194   -0.7022 Pd  0  0  0  0  0  0  0  0  0  0  0  0
  2  6  1  0  0  0  0
  5  6  1  0  0  0  0
  6  3  1  0  0  0  0
  6  4  1  0  0  0  0
  6  1  1  0  0  0  0
M  END
$$$$
