template 2
 OpenBabel05242019043D
  
  3  2  0  0  0  0  0  0  0  0999 V2000
    0.6367    1.1206   -0.7022 Cl  0  0  0  0  0  0  0  0  0  0  0  0
    0.6367   -3.2801   -0.7022 I   0  0  0  0  0  0  0  0  0  0  0  0
    0.6367   -1.1194   -0.7022 Pd  0  0  0  0  0  0  0  0  0  0  0  0
  1  3  1  0  0  0  0
  2  3  1  0  0  0  0
M  END
$$$$
